Version 4
SHEET 1 1524 680
WIRE 848 -160 608 -160
WIRE 752 -128 656 -128
WIRE 656 -112 656 -128
WIRE 752 0 752 -128
WIRE 608 16 608 -160
WIRE 720 16 608 16
WIRE 848 32 848 -160
WIRE 848 32 784 32
WIRE 912 32 848 32
WIRE 144 48 32 48
WIRE 288 48 224 48
WIRE 480 48 288 48
WIRE 608 48 480 48
WIRE 720 48 608 48
WIRE 32 96 32 48
WIRE 288 112 288 48
WIRE 480 112 480 48
WIRE 608 112 608 48
WIRE 288 224 288 176
WIRE 480 224 480 192
WIRE 480 224 288 224
WIRE 608 224 608 176
WIRE 608 224 480 224
WIRE 480 256 480 224
FLAG 32 176 0
FLAG 752 64 0
FLAG 656 -32 0
FLAG 480 256 0
FLAG 912 32 OUT
FLAG 32 48 IN
SYMBOL voltage 32 80 R0
WINDOW 3 136 -188 Left 2
WINDOW 123 24 124 Left 2
WINDOW 39 0 0 Left 0
SYMATTR Value SINE(2.5 2.5 20)
SYMATTR InstName V1
SYMBOL voltage 656 -128 R0
WINDOW 123 0 0 Left 0
WINDOW 39 0 0 Left 0
SYMATTR InstName V2
SYMATTR Value 3.3
SYMBOL res 240 32 R90
WINDOW 0 0 56 VBottom 2
WINDOW 3 32 56 VTop 2
SYMATTR InstName R2
SYMATTR Value 1k
SYMBOL res 496 208 R180
WINDOW 0 36 76 Left 2
WINDOW 3 40 46 Left 2
SYMATTR InstName R3
SYMATTR Value 2k
SYMBOL cap 272 112 R0
SYMATTR InstName C1
SYMATTR Value 100n
SYMBOL zener 624 176 R180
WINDOW 0 24 64 Left 2
WINDOW 3 -142 -10 Left 2
SYMATTR InstName D1
SYMATTR Value BZX84C6V2L
SYMBOL OpAmps\\UniversalOpamp2 752 32 R0
SYMATTR InstName U2
TEXT 176 -80 Left 2 !.tran 0.07
