Version 4
SHEET 1 1004 680
WIRE -320 -48 -368 -48
WIRE -368 -16 -368 -48
WIRE 112 -16 96 -16
WIRE 208 -16 192 -16
WIRE -240 64 -240 -48
WIRE 304 112 272 112
WIRE 400 112 384 112
WIRE 272 128 272 112
WIRE 464 128 464 96
WIRE 160 144 160 128
WIRE 400 144 400 112
WIRE 432 144 400 144
WIRE -240 160 -240 144
WIRE -144 160 -240 160
WIRE 96 160 96 -16
WIRE 96 160 -64 160
WIRE 128 160 96 160
WIRE 576 160 496 160
WIRE 624 160 576 160
WIRE 208 176 208 -16
WIRE 208 176 192 176
WIRE 320 176 208 176
WIRE 432 176 320 176
WIRE 128 192 96 192
WIRE -400 208 -400 144
WIRE -240 224 -240 160
WIRE -64 224 -144 224
WIRE 96 224 96 192
WIRE 96 224 16 224
WIRE 160 224 160 208
WIRE 464 224 464 192
WIRE 96 256 96 224
WIRE 320 272 320 176
WIRE -144 288 -144 224
WIRE -400 320 -400 288
WIRE 400 336 400 144
WIRE 448 336 400 336
WIRE 576 336 576 160
WIRE 576 336 528 336
WIRE -240 368 -240 304
WIRE 96 368 96 336
FLAG -240 368 0
FLAG 272 128 0
FLAG 96 368 0
FLAG -400 320 0
FLAG -368 -16 0
FLAG -144 224 in
FLAG 624 160 out
FLAG 320 272 middle
FLAG -144 368 0
FLAG 160 224 0
FLAG 464 224 0
FLAG -400 144 +3.3V
FLAG 160 128 +3.3V
FLAG 464 96 +3.3V
SYMBOL res 80 240 R0
SYMATTR InstName R1
SYMATTR Value 2K
SYMATTR SpiceLine tol=1 pwr=0.1
SYMBOL res 32 208 R90
WINDOW 0 0 56 VBottom 2
WINDOW 3 32 56 VTop 2
SYMATTR InstName R2
SYMATTR Value 1K
SYMATTR SpiceLine tol=1 pwr=0.1
SYMBOL res -224 160 R180
WINDOW 0 36 76 Left 2
WINDOW 3 36 40 Left 2
SYMATTR InstName R3
SYMATTR Value 1k
SYMBOL res -256 208 R0
SYMATTR InstName R4
SYMATTR Value 1k
SYMBOL res -48 144 R90
WINDOW 0 0 56 VBottom 2
WINDOW 3 34 55 VTop 2
SYMATTR InstName R5
SYMATTR Value 1K
SYMATTR SpiceLine tol=1 pwr=0.1
SYMBOL res 400 96 R90
WINDOW 0 0 56 VBottom 2
WINDOW 3 32 56 VTop 2
SYMATTR InstName R6
SYMATTR Value {R1}
SYMBOL voltage -400 192 R0
WINDOW 0 -32 56 VBottom 2
WINDOW 3 32 56 VTop 2
WINDOW 123 0 0 Left 0
WINDOW 39 0 0 Left 0
SYMATTR InstName V1
SYMATTR Value 3.3
SYMBOL voltage -224 -48 R90
WINDOW 0 -32 56 VBottom 2
WINDOW 3 32 56 VTop 2
WINDOW 123 0 0 Left 0
WINDOW 39 0 0 Left 0
SYMATTR InstName V2
SYMATTR Value 5
SYMBOL voltage -144 272 R0
WINDOW 123 0 0 Left 0
WINDOW 39 0 0 Left 0
WINDOW 0 42 60 Left 2
SYMATTR InstName V3
SYMATTR Value SINE(2.5 2.5 20)
SYMBOL res 208 -32 R90
WINDOW 0 0 56 VBottom 2
WINDOW 3 32 56 VTop 2
SYMATTR InstName R7
SYMATTR Value 2k
SYMATTR SpiceLine tol=1 pwr=0.1
SYMBOL res 544 320 R90
WINDOW 0 0 56 VBottom 2
WINDOW 3 32 56 VTop 2
SYMATTR InstName R8
SYMATTR Value {R2}
SYMBOL OpAmps\\UniversalOpamp2 464 160 R0
SYMATTR InstName U1
SYMBOL OpAmps\\UniversalOpamp2 160 176 R0
SYMATTR InstName U2
TEXT -1184 208 Left 2 !.tran 0.07
TEXT -1184 232 Left 2 !.meas ymax MAX (v(out))
TEXT -1184 264 Left 2 !.step param R2 3k 4 1000
TEXT -1184 288 Left 2 !.step param R1 4 3k 1000
