Version 4
SHEET 1 880 680
WIRE 224 -144 -144 -144
WIRE 544 -144 224 -144
WIRE -144 -96 -144 -144
WIRE 224 -80 224 -144
WIRE 544 0 544 -144
WIRE 224 16 224 0
WIRE 384 16 224 16
WIRE 496 16 384 16
WIRE 32 64 -80 64
WIRE 144 64 144 16
WIRE 144 64 112 64
WIRE 160 64 144 64
WIRE -80 128 -80 64
WIRE 544 128 544 96
WIRE 704 128 544 128
WIRE 544 160 544 128
WIRE -144 224 -144 -16
WIRE -80 224 -80 208
WIRE -80 224 -144 224
WIRE 32 224 -80 224
WIRE 224 224 224 112
WIRE 224 224 32 224
WIRE 224 240 224 224
WIRE 544 240 224 240
WIRE 32 256 32 224
FLAG 32 256 0
FLAG 704 128 out
FLAG 144 16 out1
FLAG 384 16 gate
SYMBOL voltage -80 112 R0
WINDOW 123 0 0 Left 0
WINDOW 39 0 0 Left 0
SYMATTR InstName V1
SYMATTR Value PULSE(0 3.3 0 0 0 0 1)
SYMBOL res 208 -96 R0
SYMATTR InstName R1
SYMATTR Value 500
SYMBOL res 528 144 R0
SYMATTR InstName R2
SYMATTR Value 100k
SYMBOL res 128 48 R90
WINDOW 0 0 56 VBottom 2
WINDOW 3 32 56 VTop 2
SYMATTR InstName R3
SYMATTR Value 1000
SYMBOL npn 160 16 R0
SYMATTR InstName Q1
SYMATTR Value DI_BC817-40
SYMBOL pmos 496 96 M180
SYMATTR InstName M1
SYMATTR Value BSS84
SYMBOL voltage -144 -112 R0
WINDOW 123 0 0 Left 0
WINDOW 39 0 0 Left 0
SYMATTR InstName V2
SYMATTR Value 5
TEXT -176 280 Left 2 !.tran 5
